Circuito RC com fonte senoidal
C0100 1 0 10E-6
R0102 1 2 1
V0200 2 0 SIN 0 2 1E+3 0 0 90 10
.TRAN 2E-3 1E-6 TRAP 1E-6
