2
R0100 1 0 1
R0102 1 2 1
V0200 2 0 SIN 0 2 1E+3 0 0 90 1
.TRAN 2E-3 1E-6 TRAP 1E-6
