2
C0100 1 0 10E-6
R0102 1 2 1
V0200 2 0 DC 10
.TRAN 2E-3 1E-6 TRAP 1E-6
