1
L0100 1 0 0.1
C0100 1 0 0.1
N0100 1 0 -2 0 -1 1 1 -1 2 0
I0001 0 1 PULSE 0 0.1 0 0 0 0.1 1000 1
.TRAN 3 3E-3 TRAP 1
